Version 4
SHEET 1 880 680
WIRE 96 -32 80 -32
WIRE 256 -32 176 -32
WIRE 352 -32 256 -32
WIRE 352 16 176 16
WIRE 176 64 176 16
WIRE 352 64 352 16
WIRE -48 80 -208 80
WIRE 80 80 80 -32
WIRE 80 80 32 80
WIRE 144 80 80 80
WIRE 256 96 256 -32
WIRE 256 96 208 96
WIRE -208 112 -208 80
WIRE 144 112 64 112
WIRE 64 144 64 112
WIRE 176 160 176 128
WIRE 352 160 352 144
WIRE -208 224 -208 192
WIRE 64 272 64 224
FLAG 64 272 0
FLAG 176 160 0
FLAG 352 160 0
FLAG 352 -32 Out
IOPIN 352 -32 Out
FLAG -208 224 0
SYMBOL Opamps\\AD8605 176 32 R0
SYMATTR InstName U1
SYMBOL voltage 64 128 R0
SYMATTR InstName V1
SYMATTR Value 2.5
SYMBOL voltage 352 48 R0
SYMATTR InstName V2
SYMATTR Value 5
SYMBOL res 192 -48 R90
WINDOW 0 0 56 VBottom 2
WINDOW 3 32 56 VTop 2
SYMATTR InstName R1
SYMATTR Value 2k
SYMBOL res 48 64 R90
WINDOW 0 0 56 VBottom 2
WINDOW 3 32 56 VTop 2
SYMATTR InstName R2
SYMATTR Value 1k
SYMBOL voltage -208 96 R0
SYMATTR InstName V3
SYMATTR Value 2.2
TEXT 8 -160 Left 2 !.tran 0 1m 0 0.1m
